[TITLE]

[JUNCTIONS]
 CAMVHDWYBC                           77.9400
 CAMXTLUPLQ                           77.8200
 CAN4WI14EF                           77.8200
 CAJU04DEAE                           82.9200
 CAK7V3U75Q                           82.8400
 CAKIJ91SJ7                           82.8000
 CAHY3SP1SX                           91.8600
 CAH3PK8EBQ                           77.2600
 CAHEPQJDCC                           91.0832
 CAHMGUBXB9                           89.4416
 CAHSYX0MQL                           92.1400
 CAHVB5XDYX                           92.0600
 CAHW7YK6TE                           92.0200
 CAT9D0UI7M                           77.7600
 CATA11682A                           77.7800
 CATGQWN42E                           73.5096
 CATHG4T3C2                           73.5648
 CATT7GTXPW                           73.4448
 CAU3UEQ84P                           73.4320
 CAWTQQVEVB                           76.4800
 CAX35UYJJV                           76.4260
 CAXRMST1XU                           73.4600
 CAY2XR11B8                           73.3400
 CAY8MF6FBW                           76.3020
 CB0QS62499                           74.8800
 CADXK24N13                           82.3200
 CAE6C5W3QA                           82.3200
 CAF33KUVGM                           77.5000
 CAFPFW92WV                           77.5000
 CAG1S2RCNU                           77.5800
 CAGS1F0TLF                           91.2176
 CAH1VXWUNL                           91.1504
 CAHWX6Q63G                           91.9800
 CAPIT7B4E5                           77.8800
 CAPPYAASDR                           77.8800
 CAPVSD54EV                           77.8800
 CAPYDEE98V                           75.2800
 CAQ3U9RK1F                           77.8800
 CAQ8FISRY6                           77.7600
 CAQIGNNNJR                           77.7200
 CARAD29R5S                           78.0000
 CARJR6TXRB                           77.9600
 CARXM6AQMI                           77.9200
 CBFA18E7W7                           70.0000
 CBFAN8PTXP                           70.0000
 C9Y7EGTTLF                           77.1600
 CA10DR3GC9                           76.9600
 CA1GW02UYE                           95.1000
 CA1PC3NXWK                           95.0400
 CA2V5N2795                           94.7200
 CA46TARLYL                           95.0400
 CA4CYDRAW4                           95.0400
 CA5MC0UVXD                           87.9200
 CANS01JKLF                           75.3800
 CAP5J0V1HB                           75.3400
 CAPAYVPEHU                           77.8600
 CBE00L0FGR                           70.0448
 CBEA1QV88R                           70.0000
 CBF49CE69F                           70.0000
 CBF8Q7RT8I                           70.0000
 CALXFXC0C3                           79.8160
 CAM86331DP                           75.5200
 CAMPX4EQJ0                           77.8000
 C9U9IYAIF0                           94.1000
 C9UWJA141Y                           81.4500
 C9VE2I219T                           81.5424
 CA72VPGLWJ                           87.5200
 CA7MM038UT                           84.6800
 C8DQK37GHA                           80.3784
 C8E33U7KFT                           80.4368
 C8F0JHAY64                           80.5616
 C8W8QDU3CD                           80.0000
 C8WBYFEKP9                           80.0000
 CB0WL8VFB4                           74.8400
 CB2DFY4J7J                           74.7200
 CB2MU3NQWW                           74.6200
 CB7UJLLUNS                           72.1000
 CBC7CBVXKK                           71.3000
 CBCBNSL27P                           71.3000
 CAIXHGQQNM                           89.3208
 CAJ2PIT6KH                           76.9800
 CA7T52RTDL                           77.2600
 CA7VQ4124D                           84.4000
 C9R8XHF0QW                           79.4000
 C9SR389LQ7                           94.7400
 C94GPWFYTE                           80.3116
 C94K9Y6VB0                           80.1176
 C954Q85WMC                           80.1080
 C9DT8FUUX8                           80.0000
 C9E02IP6XR                           80.0200
 C9EQAVY4YU                           90.4800
 CAKJ52I8D0                           82.7200
 CAKK69TJKD                           82.6400
 CALBCF9VEK                           79.8704
 CALN2SRSSR                           79.8440
 CAHYT0U130                           91.8200
 CBDU5IM5V4                           70.0480
 CBDWGRJVVL                           70.0464
 C9T5CEQ1U7                           94.5200
 CADQRXTA63                           82.3200
 CA81967Y3E                           84.5600
 CA81W6IN8H                           84.4000
 C9PVQ1R1B5                           79.4200
 C9PYVVH9RD                           79.3800
 C9QE53EE12                           84.0812
 C9QEPVVVHU                           82.9468
 C9LML9DG9V                           93.9500
 C9MCJL1GV1                           93.6580
 C9NRSAHD2T                           82.3188
 CA87E97M2F                           84.5600
 CA8AYAXHQ3                           84.4400
 CA7RI202PL                           77.2600
 C9QMJ7HKE4                           82.9728
 C9QPT8LCD6                           79.2400
 C9QS39PSWU                           79.2600
 C9QTDABWF3                           83.0568
 C9QVBBABA5                           79.2800
 C9QYVD16KC                           79.3200
 C9R3B13HHM                           79.3400
 C9R6NGBJ7V                           79.3800
 CA8BXBF5RV                           77.2000
 CA8EUCTPTA                           84.5200
 C9W4YV634F                           81.6652
 C9WA5XMY4F                           94.8400
 C9X8IEE4HN                           94.4200
 C9XV3BBI87                           77.2000
 CA68EAL687                           94.8400
 CA6U4KP70F                           87.6000
 CAI412VSYL                           89.3904
 C9EVNJYJ69                           90.8600
 C9EXR0K73H                           90.9800
 C9H6T3JU4T                           89.5400
 CA81W6J9C0                           77.2200
 C9VLY1H0CL                           81.5816
 C9W0RT3RFP                           94.9400
 CA5US4GYVU                           87.8400
 C91KMHRJM3                           80.0000
 C92ICY6VWN                           80.3472
 C93NUIDTPD                           80.1332
 C947YS7GPL                           80.3840
 C94BQFF6BM                           80.2720
 CAINFCCEF3                           80.6800
 C9NVNCDIKS                           83.7004
 C9P4FG614L                           82.4976
 C9P7NHQGRR                           83.7900
 C9PC9RRQ0T                           82.5400
 C9PD6KERSF                           79.4000
 C9PKCVPRYD                           79.3800
 C9L8D2G0AT                           94.0984
 C9F1N20DHX                           90.3400
 C9FCUSU5IA                           90.2400
 C9G2XJ5LAU                           92.1800
 C9GI5RJ537                           92.1000
 C9GVPQUK1X                           91.9600
 C9H5U33NWC                           91.8800
 CBD7S88RM5                           70.9200
 CBCMNXY0VF                           71.1800
 CBCU6242J0                           71.0000
 CBCGC9GIVH                           71.0800
 CAIE27S80K                           80.6400
 CAIG08PP1M                           90.9152
 CAIVVFYH73                           80.6400
 hydrx3                               88.7200

[RESERVOIRS]
 1                                     0.9835  res1                           

[TANKS]

[PIPES]
 L07KECGB                        CALXFXC0C3                      CALN2SRSSR                            1.5900      94.7800      70.0900       0.0000 
 L07KECGC                        CALBCF9VEK                      CAIVVFYH73                           15.5000      94.7800      70.0900       0.0000 
 L07KECIA                        CAIVVFYH73                      CAE6C5W3QA                           30.2100      94.7800      70.0900       0.0000 
 L07KECKA                        CAE6C5W3QA                      CA8AYAXHQ3                           37.4800      94.7800      70.0900       0.0000 
 L07KECMA                        CA8AYAXHQ3                      CA81967Y3E                            1.8300      94.7800      70.0900       0.0000 
 L07KECGA                        CALN2SRSSR                      CALBCF9VEK                            1.9900      94.7800      70.0900       0.0000 
 L07KED1B                        CARAD29R5S                      CAQ3U9RK1F                           13.8600     195.9600     149.9600       0.0000 
 L07LC28B                        C94GPWFYTE                      C947YS7GPL                            5.3900      99.6500      70.0000       0.0000 
 L07LC28C                        C94BQFF6BM                      C94GPWFYTE                            2.0100      99.6500      70.0000       0.0000 
 L07LC2AA                        C93NUIDTPD                      C94K9Y6VB0                            5.0500      99.6500      70.0000       0.0000 
 L07KED2A                        CARAD29R5S                      CARJR6TXRB                            1.4500      94.3700      50.8300       0.0000 
 L07KED2B                        CARJR6TXRB                      CARXM6AQMI                            2.0000      94.3700      50.8300       0.0000 
 L07KED2C                        CARXM6AQMI                      CAT9D0UI7M                            6.9400      94.3700      50.8300       0.0000 
 L07KED3A                        CAT9D0UI7M                      CAWTQQVEVB                           40.3100      94.3700      50.8300       0.0000 
 L07KED5A                        CAWTQQVEVB                      CB2DFY4J7J                           47.4600      94.3700      50.8300       0.0000 
 L07KED1C                        CAQ3U9RK1F                      CAPVSD54EV                            2.0000     195.9600     149.9600       0.0000 
 L07KEBJA                        CAFPFW92WV                      CAH3PK8EBQ                            9.1700      99.6500      70.0000       0.0000 
 L07KEBKA                        CAH3PK8EBQ                      CAJ2PIT6KH                           14.0100      99.6500      70.0000       0.0000 
 L07KEBNA                        CAG1S2RCNU                      C9UWJA141Y                          137.2000     195.5900     110.0000       0.0000 
 L07KEC0A                        C9UWJA141Y                      C9QTDABWF3                           27.2200     195.5900     110.0000       0.0000 
 L07KECEB                        CAKIJ91SJ7                      CAK7V3U75Q                            1.6500      58.1100      23.4200       0.0000 
 L07KE99A                        CAU3UEQ84P                      CATHG4T3C2                            3.6800      99.6200     100.0000       0.0000 
 L07KE9CA                        CBEA1QV88R                      CBFAN8PTXP                            5.5100      99.6500      70.0000       0.0000 
 L07KE9DA                        CBEA1QV88R                      CBD7S88RM5                           36.2500      99.6500      70.0000       0.0000 
 L07KE9JA                        CBCGC9GIVH                      CB7UJLLUNS                           25.4300      96.6300     100.0000       0.0000 
 L07KE9JB                        CBD7S88RM5                      CBCU6242J0                            1.9600      96.6300     100.0000       0.0000 
 L07KE9JC                        CBCU6242J0                      CBCGC9GIVH                            1.9900      96.6300     100.0000       0.0000 
 L07KECEC                        CAJU04DEAE                      CA72VPGLWJ                           82.5700      58.1100      23.4200       0.0000 
 L07KECFA                        CAKK69TJKD                      CALXFXC0C3                           67.3600     152.9700     150.0000       0.0000 
 L07KECFB                        CAKJ52I8D0                      CAKK69TJKD                            2.0000     152.9700     150.0000       0.0000 
 L07KECFC                        CAKIJ91SJ7                      CAKJ52I8D0                            1.2100     152.9700     150.0000       0.0000 
 L07KEBGB                        CAQIGNNNJR                      CAQ8FISRY6                            1.9800     195.5900     110.0000       0.0000 
 L07KEBIA                        CAG1S2RCNU                      CAFPFW92WV                            8.4900      99.6500      70.0000       0.0000 
 L07KE9KA                        CBD7S88RM5                      CBCMNXY0VF                            7.9300      99.6500      70.0000       0.0000 
 L07KE9LA                        CBC7CBVXKK                      CBCBNSL27P                            2.0100     148.5000      70.0000       0.0000 
 L07KE9LB                        CBCMNXY0VF                      CBC7CBVXKK                            3.2000     148.5000      70.0000       0.0000 
 L07KEBGA                        CAQ8FISRY6                      CAPPYAASDR                            3.4600     195.5900     110.0000       0.0000 
 L07KEC2A                        C9QTDABWF3                      C9NVNCDIKS                           12.7400     148.5000      70.0000       0.0000 
 L07KEC4A                        C9NVNCDIKS                      C9EQAVY4YU                          112.1200     139.4700     100.0000       0.0000 
 L07KEC5A                        C9EQAVY4YU                      C9EVNJYJ69                            7.0700     139.4700     100.0000       0.0000 
 L07KEC5B                        C9EXR0K73H                      C9G2XJ5LAU                           24.6400     139.4700     100.0000       0.0000 
 L07KEC5C                        C9EVNJYJ69                      C9EXR0K73H                            2.0100     139.4700     100.0000       0.0000 
 L07KECEA                        CAK7V3U75Q                      CAJU04DEAE                            1.9900      58.1100      23.4200       0.0000 
 L07LBPMA                        C9SR389LQ7                      C9T5CEQ1U7                            2.3800      99.6500      70.0000       0.0000 
 L07LB06A                        C9VE2I219T                      C9VLY1H0CL                            1.9900      74.2500      70.0000       0.0000 
 L07LB06B                        C9VLY1H0CL                      C9W4YV634F                            4.2800      74.2500      70.0000       0.0000 
 L07KE8IC                        C9QS39PSWU                      C9QVBBABA5                            1.8500      99.6500      70.0000       0.0000 
 L07KE8KA                        C9QPT8LCD6                      CA7RI202PL                           88.5900      78.9900      80.0000       0.0000 
 L07KE8NA                        CA7T52RTDL                      CA7RI202PL                            0.9700      78.9900      80.0000       0.0000 
 L07KE97A                        C9XV3BBI87                      C9Y7EGTTLF                            2.0100     139.4700     100.0000       0.0000 
 L07KE97B                        C9Y7EGTTLF                      CA10DR3GC9                           10.8000     139.4700     100.0000       0.0000 
 L07KE8IB                        C9QPT8LCD6                      C9QS39PSWU                            1.3400      99.6500      70.0000       0.0000 
 L07KE8IA                        C9QVBBABA5                      C9QYVD16KC                            2.0100      99.6500      70.0000       0.0000 
 L07LAP8A                        CA81967Y3E                      CA87E97M2F                            1.5700      74.2500      70.0000       0.0000 
 L07LAP9A                        CA87E97M2F                      CA8EUCTPTA                            1.8500      74.2500      70.0000       0.0000 
 L07LAPAA                        CAE6C5W3QA                      CADXK24N13                            1.8900      74.2500      70.0000       0.0000 
 L07KE8CA                        C9PKCVPRYD                      C9PD6KERSF                            1.2500      99.6500      70.0000       0.0000 
 L07KE8DA                        C9PD6KERSF                      C9DT8FUUX8                           62.9700      99.6500      70.0000       0.0000 
 L07KE8EA                        C9DT8FUUX8                      C947YS7GPL                           57.2100      99.6500      70.0000       0.0000 
 L07KE8HA                        C9PYVVH9RD                      C9QPT8LCD6                            7.7900      99.6500      70.0000       0.0000 
 L07KE8HB                        C9PD6KERSF                      C9PVQ1R1B5                            3.6500      99.6500      70.0000       0.0000 
 L07KE8HC                        C9PVQ1R1B5                      C9PYVVH9RD                            2.0000      99.6500      70.0000       0.0000 
 L07KJN0B                        CAHVB5XDYX                      CAHW7YK6TE                            2.0000     195.5900     110.0000       0.0000 
 L07KJN0C                        CAHW7YK6TE                      CAHWX6Q63G                            2.0000     195.5900     110.0000       0.0000 
 L07KJN0D                        CAHYT0U130                      CAIG08PP1M                           39.1800     195.5900     110.0000       0.0000 
 L07KJN0E                        CAHSYX0MQL                      CAHVB5XDYX                            4.5700     195.5900     110.0000       0.0000 
 L07KJN0F                        CAHY3SP1SX                      CAHYT0U130                            2.0000     195.5900     110.0000       0.0000 
 L07KJN2A                        CAIG08PP1M                      CAIXHGQQNM                           48.1900     195.5900     110.0000       0.0000 
 L07KJN4A                        CAKIJ91SJ7                      hydrx3                              126.0000     152.9700     150.0000       0.0000 
 L07KJN5A                        CA72VPGLWJ                      CA6U4KP70F                            1.5000      99.6500      70.0000       0.0000 
 L07L0E5A                        CA81W6J9C0                      CA8BXBF5RV                            1.9900      78.9900      80.0000       0.0000 
 L07L0E5B                        CA7RI202PL                      CA81W6J9C0                            1.5000      78.9900      80.0000       0.0000 
 L07L0E5C                        CA8BXBF5RV                      CAM86331DP                           75.2700      78.9900      80.0000       0.0000 
 L07LBPNA                        C9T5CEQ1U7                      C9U9IYAIF0                            6.8300      99.6500      70.0000       0.0000 
 L07LBPGA                        CAIXHGQQNM                      CAI412VSYL                            4.4100      74.2500      70.0000       0.0000 
 L07LBPCA                        CA72VPGLWJ                      CA5US4GYVU                            8.3800      74.2500      70.0000       0.0000 
 L07LBPIA                        CA1GW02UYE                      CA1PC3NXWK                            1.3500      74.2500      70.0000       0.0000 
 L07LBPJA                        CA1PC3NXWK                      CA2V5N2795                            7.0500      74.2500      70.0000       0.0000 
 L07LBPKA                        C9W0RT3RFP                      C9WA5XMY4F                            1.6800      74.2500      70.0000       0.0000 
 L07LBPLA                        C9WA5XMY4F                      C9X8IEE4HN                            5.6800      74.2500      70.0000       0.0000 
 L07L0ELA                        CAFPFW92WV                      CAF33KUVGM                            5.2600      99.6500      70.0000       0.0000 
 L07L0ENA                        CANS01JKLF                      CAP5J0V1HB                            2.0000      98.9400     130.0000       0.0000 
 L07L0ENB                        CAM86331DP                      CANS01JKLF                            9.0900      98.9400     130.0000       0.0000 
 L07L0ENC                        CAP5J0V1HB                      CAPYDEE98V                            4.4000      98.9400     130.0000       0.0000 
 L07L0EPA                        CAXRMST1XU                      CAY2XR11B8                            2.0000      98.9400     130.0000       0.0000 
 L07LBPPA                        C9L8D2G0AT                      C9LML9DG9V                            2.5100      74.2500      70.0000       0.0000 
 L07LC00A                        C9LML9DG9V                      C9MCJL1GV1                            4.2300      74.2500      70.0000       0.0000 
 L07LC01A                        C9G2XJ5LAU                      C9GI5RJ537                            2.4300      74.2500      70.0000       0.0000 
 L07LC02A                        C9GI5RJ537                      C9GVPQUK1X                            2.0000      74.2500      70.0000       0.0000 
 L07LC02B                        C9GVPQUK1X                      C9H5U33NWC                            1.4600      74.2500      70.0000       0.0000 
 L07LC27A                        C91KMHRJM3                      C93NUIDTPD                           28.5100      99.6500      70.0000       0.0000 
 L07LC28A                        C93NUIDTPD                      C94BQFF6BM                            8.7700      99.6500      70.0000       0.0000 
 L07L32MB                        CAMPX4EQJ0                      CAG1S2RCNU                           57.5500     195.5900     110.0000       0.0000 
 L07L32MC                        CAN4WI14EF                      CAMXTLUPLQ                            1.5200     195.5900     110.0000       0.0000 
 L07L32NA                        CAN4WI14EF                      CAMVHDWYBC                            6.0300      99.6200     100.0000       0.0000 
 L07LAP2A                        C9NVNCDIKS                      C9P7NHQGRR                            2.6600      74.2500      70.0000       0.0000 
 L07LAP3A                        C9P7NHQGRR                      C9QE53EE12                           10.2300      74.2500      70.0000       0.0000 
 L07LAP4A                        C9QTDABWF3                      C9QMJ7HKE4                            1.4600     139.4700     100.0000       0.0000 
 L07LAP4B                        C9PC9RRQ0T                      C9P4FG614L                            2.0100     139.4700     100.0000       0.0000 
 L07LAP4C                        C9QMJ7HKE4                      C9QEPVVVHU                            2.0000     139.4700     100.0000       0.0000 
 L07LAP4D                        C9QEPVVVHU                      C9PC9RRQ0T                            9.3400     139.4700     100.0000       0.0000 
 L07LAP5A                        C9P4FG614L                      C9NRSAHD2T                            2.9600     139.4700     100.0000       0.0000 
 L07LAP6A                        CA8AYAXHQ3                      CA81W6IN8H                            2.2800      74.2500      70.0000       0.0000 
 L07LAP7A                        CA81W6IN8H                      CA7VQ4124D                            1.4400      74.2500      70.0000       0.0000 
 L07KJMEC                        CA46TARLYL                      CA1GW02UYE                           29.4900     148.5000      70.0000       0.0000 
 L07KJMGA                        CA1GW02UYE                      C9W0RT3RFP                           48.9100     148.5000      70.0000       0.0000 
 L07KJMIA                        C9W0RT3RFP                      C9SR389LQ7                           35.7100     148.5000      70.0000       0.0000 
 L07KJMKA                        C9SR389LQ7                      C9L8D2G0AT                           71.1400     195.5900     110.0000       0.0000 
 L07KJMMA                        C9L8D2G0AT                      C9G2XJ5LAU                           61.3000     148.5000      70.0000       0.0000 
 L07KJN0A                        CAHWX6Q63G                      CAHY3SP1SX                            3.4000     195.5900     110.0000       0.0000 
 L07KJMEB                        CA4CYDRAW4                      CA46TARLYL                            2.0100     148.5000      70.0000       0.0000 
 L07KEEMA                        C8F0JHAY64                      C92ICY6VWN                          128.4800      78.9900      80.0000       0.0000 
 L07LBPFA                        CAH1VXWUNL                      CAGS1F0TLF                            1.3700      74.2500      70.0000       0.0000 
 L07KEF0A                        C8WBYFEKP9                      C91KMHRJM3                           66.5700      78.9900      80.0000       0.0000 
 L07KEF0B                        C8W8QDU3CD                      C8WBYFEKP9                            1.9800      78.9900      80.0000       0.0000 
 L07KEF5A                        C8F0JHAY64                      C8E33U7KFT                            5.5000      99.6200     100.0000       0.0000 
 L07KEF5B                        C8E33U7KFT                      C8DQK37GHA                            2.0100      99.6200     100.0000       0.0000 
 L07KJMEA                        CA68EAL687                      CA4CYDRAW4                           16.9800     148.5000      70.0000       0.0000 
 L07LBPDA                        CA5US4GYVU                      CA5MC0UVXD                            1.4000      74.2500      70.0000       0.0000 
 L07LBPEA                        CAIG08PP1M                      CAHEPQJDCC                            5.4600      74.2500      70.0000       0.0000 
 L07LCJKA                        C9DT8FUUX8                      C9E02IP6XR                            1.5800      74.2500      70.0000       0.0000 
 L07LC2BA                        C94K9Y6VB0                      C954Q85WMC                            3.0500      99.6500      70.0000       0.0000 
 L07LC47A                        C9EQAVY4YU                      C9F1N20DHX                            1.8600      74.2500      70.0000       0.0000 
 L07LC48A                        C9F1N20DHX                      C9FCUSU5IA                            2.0000      74.2500      70.0000       0.0000 
 L07LC48B                        C9FCUSU5IA                      C9H6T3JU4T                           11.0400      74.2500      70.0000       0.0000 
 L07LCJCA                        C9R3B13HHM                      C9R6NGBJ7V                            2.1800      99.6500      70.0000       0.0000 
 L07LCJCB                        C9QYVD16KC                      C9R3B13HHM                            1.9900      99.6500      70.0000       0.0000 
 L07LCJCC                        C9R6NGBJ7V                      C9R8XHF0QW                            1.5500      99.6500      70.0000       0.0000 
 L07KED8A                        CAT9D0UI7M                      CATA11682A                            0.7100      99.6500      70.0000       0.0000 
 L07KEENA                        C92ICY6VWN                      C947YS7GPL                           10.1100      91.6500     100.0000       0.0000 
 L07KE98A                        CA10DR3GC9                      CATGQWN42E                          164.8200      99.8800     120.0000       0.0000 
 L07KE98B                        CATGQWN42E                      CATT7GTXPW                            2.0000      99.8800     120.0000       0.0000 
 L07L0EPB                        CAY2XR11B8                      CBDU5IM5V4                           94.2900      98.9400     130.0000       0.0000 
 L07KECPA                        CA81967Y3E                      CA7MM038UT                            2.3400      94.7800      70.0900       0.0000 
 L07KED0A                        CALXFXC0C3                      CARAD29R5S                           51.9700     152.9700     150.0000       0.0000 
 L07KED1A                        CAPVSD54EV                      CAPPYAASDR                            1.4200     195.9600     149.9600       0.0000 
 L07L0EBA                        CBFA18E7W7                      CBEA1QV88R                           33.8800      78.9900      80.0000       0.0000 
 L07L0EGA                        CBE00L0FGR                      CBDWGRJVVL                            2.0100      99.6200     100.0000       0.0000 
 L07L0EGB                        CAU3UEQ84P                      CBE00L0FGR                          152.4000      99.6200     100.0000       0.0000 
 L07L0EGC                        CBDWGRJVVL                      CBDU5IM5V4                            1.9200      99.6200     100.0000       0.0000 
 L07L0EKA                        CBF49CE69F                      CBF8Q7RT8I                            2.0100      98.9400     130.0000       0.0000 
 L07L0EKB                        CBDU5IM5V4                      CBF49CE69F                            8.1100      98.9400     130.0000       0.0000 
 L07L0EKC                        CBF8Q7RT8I                      CBFA18E7W7                            1.6200      98.9400     130.0000       0.0000 
 L07L32MA                        CAMXTLUPLQ                      CAMPX4EQJ0                            2.0000     195.5900     110.0000       0.0000 
 L07KE98C                        CATT7GTXPW                      CAU3UEQ84P                            1.6000      99.8800     120.0000       0.0000 
 L07KED6A                        CB2DFY4J7J                      CB2MU3NQWW                            2.0200      99.6500      70.0000       0.0000 
 L07L0EPC                        CAPYDEE98V                      CAXRMST1XU                           54.9300      98.9400     130.0000       0.0000 
 L07L0F0A                        CAF33KUVGM                      CAPYDEE98V                           96.4600      98.9400     130.0000       0.0000 
 L07L32LA                        CAPIT7B4E5                      CAPAYVPEHU                            1.9900     195.9600     149.9600       0.0000 