[TITLE]


[JUNCTIONS]
;ID              	Elev        	Demand      	Pattern         
 Z_No29623       	1.480000    	0.000024    	                	;
 Z_No29624       	1.460000    	0.001770    	Zuid_lekkage    	;
 Z_No29625       	0.930000    	0.042147    	gem_IJmuiden_dom	;
 Z_No29626       	1.100000    	0.034707    	gem_IJmuiden_dom	;
 Z_No29627       	0.390000    	0.000085    	                	;
 Z_No29628       	0.390000    	0.000096    	                	;
 Z_No29629       	0.530000    	0.098574    	gem_IJmuiden_dom	;
 Z_No29630       	0.660000    	0.000204    	Zuid_lekkage    	;
 Z_No29631       	0.810000    	0.000162    	Zuid_lekkage    	;
 Z_No29632       	0.440000    	0.032427    	gem_IJmuiden_dom	;
 Z_No29633       	0.910000    	0.035008    	gem_IJmuiden_dom	;
 Z_No29636       	1.000000    	0.010795    	gem_IJmuiden_dom	;
 Z_No29637       	1.080000    	0.000160    	Zuid_lekkage    	;
 Z_No29638       	0.930000    	0.000291    	Zuid_lekkage    	;
 Z_No29639       	0.930000    	0.035954    	gem_IJmuiden_dom	;
 Z_No29640       	0.890000    	0.009161    	gem_IJmuiden_dom	;
 Z_No29641       	0.910000    	0.011483    	gem_IJmuiden_dom	;
 Z_No29642       	1.200000    	0.005806    	gem_IJmuiden_dom	;
 Z_No29643       	1.340000    	0.000684    	Zuid_lekkage    	;
 Z_No29644       	1.460000    	0.000529    	Zuid_lekkage    	;
 Z_No29645       	1.410000    	0.054620    	gem_IJmuiden_dom	;
 Z_No29647       	1.520000    	0.013462    	gem_IJmuiden_dom	;
 Z_No29648       	1.310000    	0.002220    	gem_bedrijf_overig_IJm	;
 Z_No29649       	1.140000    	0.000097    	                	;
 Z_No29656       	0.790000    	0.000177    	Zuid_lekkage    	;
 Z_No29657       	0.840000    	0.009376    	gem_IJmuiden_dom	;
 Z_No29660       	0.460000    	0.027869    	gem_IJmuiden_dom	;
 Z_No29661       	0.560000    	0.023826    	gem_IJmuiden_dom	;
 Z_No29662       	1.210000    	0.000397    	Zuid_lekkage    	;
 Z_No29663       	1.220000    	0.000711    	Zuid_lekkage    	;
 Z_No29665       	0.470000    	0.104809    	gem_IJmuiden_dom	;
 Z_No29666       	0.910000    	0.065930    	gem_IJmuiden_dom	;
 Z_No29667       	1.020000    	0.000240    	Zuid_lekkage    	;
 Z_No29668       	1.000000    	0.000105    	                	;
 Z_No29669       	1.110000    	0.039094    	gem_IJmuiden_dom	;
 Z_No29672       	1.140000    	0.004903    	gem_IJmuiden_dom	;
 Z_No29677       	0.380000    	0.082059    	gem_IJmuiden_dom	;
 Z_No29693       	0.460000    	0.006537    	gem_IJmuiden_dom	;
 Z_No29694       	0.430000    	0.024084    	gem_IJmuiden_dom	;
 Z_No29695       	0.330000    	0.021590    	gem_IJmuiden_dom	;
 Z_No29696       	0.340000    	0.002366    	gem_IJmuiden_dom	;
 Z_No29721       	0.380000    	0.007741    	gem_IJmuiden_dom	;
 Z_No29722       	0.360000    	0.035094    	gem_IJmuiden_dom	;
 Z_No29724       	0.620000    	0.000846    	Zuid_lekkage    	;
 Z_No29727       	1.060000    	0.000087    	                	;
 Z_No29726       	1.110000    	0.008171    	gem_IJmuiden_dom	;
 Z_No29728       	0.900000    	0.040384    	gem_IJmuiden_dom	;
 Z_No29729       	0.890000    	0.008472    	gem_IJmuiden_dom	;
 Z_No29731       	1.540000    	0.002388    	Zuid_lekkage    	;
 Z_No29734       	0.810000    	0.035051    	gem_IJmuiden_dom	;
 Z_No29735       	0.960000    	0.000053    	                	;
 Z_No29736       	1.060000    	0.000634    	Zuid_lekkage    	;
 Z_No29755       	0.450000    	0.082618    	gem_IJmuiden_dom	;
 Z_No29757       	0.400000    	0.032772    	gem_IJmuiden_dom	;
 Z_No29756       	0.680000    	0.026191    	gem_IJmuiden_dom	;
 Z_No29758       	0.370000    	0.022235    	gem_IJmuiden_dom	;
 Z_No29759       	0.330000    	0.000080    	                	;
 Z_No29762       	0.560000    	0.068425    	gem_IJmuiden_dom	;
 Z_No29764       	0.850000    	0.000903    	gem_IJmuiden_dom	;
 Z_No29763       	0.880000    	0.009505    	gem_IJmuiden_dom	;
 Z_No29765       	0.840000    	0.000064    	                	;
 Z_No29766       	0.380000    	0.015379    	sportcomplexen_sportcentrum	;
 Z_No29767       	1.030000    	0.018328    	sportcomplexen_sportcentrum	;
 Z_No29768       	0.310000    	0.071693    	gem_IJmuiden_dom	;
 Z_No29769       	0.700000    	0.040384    	gem_IJmuiden_dom	;
 Z_No29771       	0.650000    	0.071780    	gem_IJmuiden_dom	;
 Z_No29772       	2.220000    	0.052555    	gem_IJmuiden_dom	;
 Z_No29774       	1.000000    	0.008644    	gem_IJmuiden_dom	;
 Z_No29775       	0.910000    	0.004344    	gem_IJmuiden_dom	;
 Z_No29777       	0.960000    	0.032944    	gem_IJmuiden_dom	;
 Z_No29778       	2.010000    	0.000173    	Zuid_lekkage    	;
 Z_No29788       	0.360000    	0.060813    	gem_IJmuiden_dom	;
 Z_No29789       	0.440000    	0.053029    	gem_IJmuiden_dom	;
 BK_VLS830       	0.670000    	0.047308    	gem_IJmuiden_dom	;
 BK_VLS96        	1.090000    	0.007354    	gem_IJmuiden_dom	;
 BK_VLS1586      	2.010000    	0.000018    	                	;
 No1             	1.163456    	0           	                	;
 No2             	1.141674    	0           	                	;
 No3             	0.569930    	0           	                	;
 No4             	0.571015    	0           	                	;
 No7             	0.903353    	0           	                	;
 No8             	0.900983    	0           	                	;
 No9             	1.142065    	0           	                	;
 No10            	1.142720    	0           	                	;
 No11            	0.380367    	0           	                	;
 No13            	2.201995    	0           	                	;
 No14            	2.195522    	0           	                	;
 No15            	0.584681    	0           	                	;
 No16            	0.585765    	0           	                	;
 No18            	0.821934    	0           	                	;
 No20            	2.019047    	0           	                	;
 No21            	0.915561    	0           	                	;
 No22            	0.918113    	0           	                	;
 No23            	0.891694    	0           	                	;
 No24            	0.891181    	0           	                	;
 No25            	0.468724    	0           	                	;
 No26            	0.468712    	0           	                	;
 No27            	0.910000    	0           	                	;
 No28            	0.910000    	0           	                	;
 No33            	1.329721    	0           	                	;
 No34            	1.318573    	0           	                	;
 No35            	0.354093    	0           	                	;
 No36            	0.355263    	0           	                	;
 No37            	0.535054    	0           	                	;
 No38            	0.539576    	0           	                	;
 No40            	0.514491    	0           	                	;
 No43            	1.210273    	0           	                	;
 No44            	1.211403    	0           	                	;
 No45            	0.450960    	0           	                	;
 No46            	0.451016    	0           	                	;
 No47            	0.449583    	0           	                	;
 No48            	0.448729    	0           	                	;
 No50            	0.322873    	0           	                	;
 No51            	0.475721    	0           	                	;
 No52            	0.453324    	0           	                	;
 No53            	1.469747    	0           	                	;
 No54            	1.472995    	0           	                	;
 BK_VLS1584      	0.892652    	0           	                	;
 BK_VLS794       	0.580126    	0           	                	;
 BK_VLS1576      	0.464505    	0           	                	;
 BK_VLS1539      	0.468628    	0           	                	;
 BK_VLS1541      	0.767129    	0           	                	;
 BK_VLS1585      	1.374315    	0           	                	;
 BK_VLS1547      	1.219696    	0           	                	;
 BK_VLS1579      	0.347306    	0           	                	;
 BK_VLS1580      	0.357491    	0           	                	;
 BK_VLS1583      	0.956596    	0           	                	;
 BK_VLS1542      	0.884718    	0           	                	;
 BK_VLS2085      	0.382771    	0           	                	;
 BK_VLS1578      	0.703755    	0           	                	;
 BK_VLS1575      	0.457743    	0           	                	;
 BK_VLS1550      	1.208792    	0           	                	;
 BK_VLS1582      	0.456525    	0           	                	;
 BK_VLS1574      	0.450387    	0           	                	;
 BK_VLS1581      	0.417201    	0           	                	;
 BK_VLS1549      	1.516230    	0           	                	;
 BK_VLS1548      	1.041326    	0           	                	;
 No20683         	0.459049    	0           	                	;
 No20751         	0.398341    	0           	                	;
 No20753         	0.391741    	0           	                	;
 No20859         	0.461949    	0           	                	;
 No20862         	0.463090    	0           	                	;
 No20925         	0.438516    	0           	                	;
 No20927         	0.416863    	0           	                	;
 No20975         	0.461148    	0           	                	;
 No20978         	0.461989    	0           	                	;
 No20979         	0.463128    	0           	                	;
 No21097         	0.433665    	0           	                	;
 No21099         	0.414957    	0           	                	;
 No21191         	0.464147    	0           	                	;
 No21193         	0.464260    	0           	                	;
 No21253         	0.452800    	0           	                	;
 No22286         	0.467720    	0           	                	;
 No22288         	0.466849    	0           	                	;
 No22314         	0.466281    	0           	                	;
 No22334         	0.467851    	0           	                	;
 No22378         	0.468832    	0           	                	;
 No22465         	0.669716    	0           	                	;
 No22467         	0.661287    	0           	                	;
 No22469         	0.661440    	0           	                	;
 No22471         	0.664603    	0           	                	;
 No22473         	0.844877    	0           	                	;
 No22475         	0.848369    	0           	                	;
 No22477         	1.062965    	0           	                	;
 No22479         	1.057741    	0           	                	;
 No22481         	0.537911    	0           	                	;
 No22483         	0.632841    	0           	                	;
 No22485         	0.657346    	0           	                	;
 No22487         	0.660113    	0           	                	;
 No22489         	0.586850    	0           	                	;
 No22491         	0.909217    	0           	                	;
 No22493         	0.906228    	0           	                	;
 No22495         	0.909131    	0           	                	;
 No22497         	0.904464    	0           	                	;
 No22499         	0.616722    	0           	                	;
 No22501         	0.620646    	0           	                	;
 No22505         	0.659742    	0           	                	;
 No22507         	1.032115    	0           	                	;
 No22509         	1.028394    	0           	                	;
 No22511         	0.949658    	0           	                	;
 No22513         	0.945314    	0           	                	;
 No22515         	0.874401    	0           	                	;
 No22517         	0.818564    	0           	                	;
 No22519         	0.819296    	0           	                	;
 No22521         	0.826557    	0           	                	;
 No22523         	0.476808    	0           	                	;
 No22525         	0.374550    	0           	                	;
 No22527         	0.375922    	0           	                	;
 No22529         	0.390512    	0           	                	;
 No22531         	0.783212    	0           	                	;
 No22534         	0.654455    	0           	                	;
 No22536         	0.659524    	0           	                	;
 No22538         	0.697727    	0           	                	;
 No22540         	0.518978    	0           	                	;
 No22542         	0.485115    	0           	                	;
 No22544         	0.446520    	0           	                	;
 No22546         	0.442239    	0           	                	;
 No22548         	0.662832    	0           	                	;
 No22550         	0.666347    	0           	                	;
 No22552         	0.668126    	0           	                	;
 No22554         	1.098035    	0           	                	;
 No22556         	0.911696    	0           	                	;
 No22558         	0.877411    	0           	                	;
 No22560         	0.826850    	0           	                	;
 No22562         	0.836532    	0           	                	;
 No22564         	1.043034    	0           	                	;
 No22567         	1.012272    	0           	                	;
 No22568         	0.510764    	0           	                	;
 No22570         	0.482583    	0           	                	;
 No22572         	0.392657    	0           	                	;
 No22574         	0.604186    	0           	                	;
 No22576         	1.524094    	0           	                	;
 No22579         	0.900976    	0           	                	;
 No22581         	0.897252    	0           	                	;
 No22583         	0.890909    	0           	                	;
 No22586         	0.695015    	0           	                	;
 No22588         	0.415069    	0           	                	;
 No22591         	1.282377    	0           	                	;
 No22592         	0.663212    	0           	                	;
 No22594         	0.666537    	0           	                	;
 No22596         	0.664921    	0           	                	;
 No22598         	0.668271    	0           	                	;
 No22600         	1.095559    	0           	                	;
 No22602         	0.910355    	0           	                	;
 No22604         	0.834041    	0           	                	;
 No22606         	0.840621    	0           	                	;
 No22609         	1.047983    	0           	                	;
 No22610         	1.019061    	0           	                	;
 No22612         	0.530318    	0           	                	;
 No22614         	0.507023    	0           	                	;
 No22616         	0.407767    	0           	                	;
 No22618         	0.630063    	0           	                	;
 No22620         	0.614457    	0           	                	;
 No22625         	0.897439    	0           	                	;
 No22627         	0.892399    	0           	                	;
 No22629         	0.892021    	0           	                	;
 No22633         	0.388458    	0           	                	;
 No22635         	0.481192    	0           	                	;
 No22637         	0.385214    	0           	                	;
 No22640         	0.392501    	0           	                	;
 No22641         	0.456920    	0           	                	;
 No22643         	0.457060    	0           	                	;
 No22645         	0.458191    	0           	                	;
 No22647         	0.439428    	0           	                	;
 No22650         	0.411052    	0           	                	;
 No22651         	0.400362    	0           	                	;
 No22653         	0.388062    	0           	                	;
 No22655         	0.423385    	0           	                	;
 No22657         	0.425500    	0           	                	;
 No22659         	0.474035    	0           	                	;
 No22661         	0.475960    	0           	                	;
 No22663         	0.390276    	0           	                	;
 No22665         	0.396930    	0           	                	;
 No22667         	0.359153    	0           	                	;
 No22669         	0.357668    	0           	                	;
 No22671         	0.403226    	0           	                	;
 No22673         	0.408363    	0           	                	;
 No22676         	0.409545    	0           	                	;
 No22677         	0.414363    	0           	                	;
 No22679         	0.372815    	0           	                	;
 No22682         	0.421765    	0           	                	;
 No22683         	0.427337    	0           	                	;
 No22685         	0.428230    	0           	                	;
 No22687         	1.278695    	0           	                	;
 No22689         	1.768954    	0           	                	;
 No22691         	1.035874    	0           	                	;
 No22693         	1.000000    	0           	                	;
 No22696         	0.998859    	0           	                	;
 No22697         	0.979002    	0           	                	;
 No22699         	1.577178    	0           	                	;
 No22707         	0.832032    	0           	                	;
 No22710         	0.736020    	0           	                	;
 No22711         	0.715490    	0           	                	;
 No22713         	0.712475    	0           	                	;
 No22715         	0.688198    	0           	                	;
 No22717         	0.877569    	0           	                	;
 No22719         	0.867691    	0           	                	;
 No22721         	0.858796    	0           	                	;
 No22723         	1.035028    	0           	                	;
 No22726         	0.891991    	0           	                	;
 No22727         	0.891040    	0           	                	;
 No22729         	0.883788    	0           	                	;
 No22731         	0.882981    	0           	                	;
 No22734         	0.875814    	0           	                	;
 No22735         	0.459233    	0           	                	;
 No22739         	0.405781    	0           	                	;
 No22742         	0.423279    	0           	                	;
 No22744         	0.453101    	0           	                	;
 No22746         	0.454089    	0           	                	;
 No22753         	0.451095    	0           	                	;
 No22755         	0.440417    	0           	                	;
 No22757         	0.370784    	0           	                	;
 No22759         	0.347942    	0           	                	;
 No22763         	0.404193    	0           	                	;
 No22766         	0.495264    	0           	                	;
 No22767         	0.514260    	0           	                	;
 No22769         	0.380328    	0           	                	;
 No22772         	0.351966    	0           	                	;
 No22773         	0.364695    	0           	                	;
 No22776         	0.395401    	0           	                	;
 No22778         	0.401878    	0           	                	;
 No22779         	0.317987    	0           	                	;
 No22781         	0.324425    	0           	                	;
 No22783         	0.346008    	0           	                	;
 No22785         	0.350164    	0           	                	;
 No22787         	0.434550    	0           	                	;
 No22789         	0.376326    	0           	                	;
 No22793         	0.997700    	0           	                	;
 No22795         	1.046241    	0           	                	;
 No22798         	1.079136    	0           	                	;
 No22799         	1.755872    	0           	                	;
 No22801         	1.617316    	0           	                	;
 No22803         	1.281495    	0           	                	;
 No22806         	1.131840    	0           	                	;
 No22807         	1.544826    	0           	                	;
 No22813         	0.833560    	0           	                	;
 No22816         	0.852204    	0           	                	;
 No22818         	0.863747    	0           	                	;
 No22819         	0.832051    	0           	                	;
 No22821         	0.759758    	0           	                	;
 No22823         	0.662237    	0           	                	;
 No22825         	0.638168    	0           	                	;
 No22827         	0.533088    	0           	                	;
 No22829         	0.533818    	0           	                	;
 No22831         	0.540298    	0           	                	;
 No22833         	1.001906    	0           	                	;
 No22835         	0.966338    	0           	                	;
 No22837         	0.909752    	0           	                	;
 No22839         	0.903295    	0           	                	;
 No22841         	0.458080    	0           	                	;
 No22843         	0.878857    	0           	                	;
 No22848         	0.456704    	0           	                	;
 No22849         	0.404202    	0           	                	;
 No22851         	0.420803    	0           	                	;
 No22853         	0.453279    	0           	                	;
 No22855         	0.456280    	0           	                	;
 No22862         	1.610569    	0           	                	;
 No22864         	0.539546    	0           	                	;
 No22867         	0.450317    	0           	                	;
 No22868         	0.360681    	0           	                	;
 No22870         	0.338569    	0           	                	;
 No22874         	0.387725    	0           	                	;
 No22876         	0.409286    	0           	                	;
 No22878         	0.491063    	0           	                	;
 No22880         	0.512324    	0           	                	;
 No22882         	0.388217    	0           	                	;
 No22884         	0.352432    	0           	                	;
 No22887         	0.363984    	0           	                	;
 No22888         	0.370589    	0           	                	;
 No22890         	0.389626    	0           	                	;
 No22892         	0.397128    	0           	                	;
 No22895         	0.318687    	0           	                	;
 No22896         	0.325096    	0           	                	;
 No22898         	0.327412    	0           	                	;
 No22900         	0.351285    	0           	                	;
 No22902         	0.433705    	0           	                	;
 No22904         	0.439248    	0           	                	;
 No22906         	1.011446    	0           	                	;
 No22908         	0.992477    	0           	                	;
 No22910         	1.035719    	0           	                	;
 No22912         	1.037359    	0           	                	;
 No22914         	1.873597    	0           	                	;
 No22916         	1.737704    	0           	                	;
 No22918         	1.241880    	0           	                	;
 No22921         	1.353210    	0           	                	;
 No22924         	0.847049    	0           	                	;
 No22926         	0.862080    	0           	                	;
 No22928         	0.762355    	0           	                	;
 No22931         	0.739307    	0           	                	;
 No22932         	0.682228    	0           	                	;
 No22935         	0.659183    	0           	                	;
 No22937         	0.539913    	0           	                	;
 No22938         	0.539504    	0           	                	;
 No22940         	1.000606    	0           	                	;
 No22943         	0.965045    	0           	                	;
 No22944         	0.912390    	0           	                	;
 No22946         	0.906142    	0           	                	;
 No22948         	0.454464    	0           	                	;
 No22950         	1.810788    	0           	                	;
 No22954         	1.043152    	0           	                	;
 No22956         	0.436867    	0           	                	;
 No22958         	0.450907    	0           	                	;
 No22961         	0.451970    	0           	                	;
 No22963         	0.452166    	0           	                	;
 No22974         	0.487876    	0           	                	;
 No22977         	0.505633    	0           	                	;
 No22978         	0.537981    	0           	                	;
 No22980         	0.559168    	0           	                	;
 No22983         	0.558409    	0           	                	;
 No22984         	0.331846    	0           	                	;
 No22986         	0.339817    	0           	                	;
 No22992         	0.530823    	0           	                	;
 No22994         	0.533650    	0           	                	;
 No22996         	0.550151    	0           	                	;
 No22999         	0.371126    	0           	                	;
 No23000         	0.376842    	0           	                	;
 No23003         	0.377914    	0           	                	;
 No23005         	0.382760    	0           	                	;
 No23007         	0.330870    	0           	                	;
 No23008         	0.331570    	0           	                	;
 No23010         	0.336701    	0           	                	;
 No23012         	0.339676    	0           	                	;
 No23014         	0.345546    	0           	                	;
 No23017         	0.397703    	0           	                	;
 No23018         	0.401388    	0           	                	;
 No23020         	0.421847    	0           	                	;
 No23022         	0.982994    	0           	                	;
 No23025         	0.978182    	0           	                	;
 No23027         	0.963614    	0           	                	;
 No23029         	1.086616    	0           	                	;
 No23031         	1.073951    	0           	                	;
 No23033         	1.599186    	0           	                	;
 No23034         	1.474904    	0           	                	;
 No23037         	1.405000    	0           	                	;
 No23039         	1.386878    	0           	                	;
 No23040         	0.886048    	0           	                	;
 No23042         	0.858906    	0           	                	;
 No23044         	0.855437    	0           	                	;
 No23046         	0.834404    	0           	                	;
 No23049         	0.635851    	0           	                	;
 No23050         	0.566243    	0           	                	;
 No23052         	0.563646    	0           	                	;
 No23054         	0.542526    	0           	                	;
 No23057         	0.926955    	0           	                	;
 No23058         	0.923970    	0           	                	;
 No23060         	0.920741    	0           	                	;
 No23062         	0.916557    	0           	                	;
 No23064         	1.055949    	0           	                	;
 No23066         	1.679519    	0           	                	;
 No23074         	0.789726    	0           	                	;
 No23076         	0.737201    	0           	                	;
 No23078         	0.776184    	0           	                	;
 No23080         	1.521654    	0           	                	;
 No23082         	1.682412    	0           	                	;
 No23084         	2.162015    	0           	                	;
 No23088         	1.615275    	0           	                	;
 No23098         	0.877240    	0           	                	;
 No23100         	0.826853    	0           	                	;
 No23102         	0.685311    	0           	                	;
 No23104         	0.731966    	0           	                	;
 No23106         	0.561084    	0           	                	;
 No23108         	1.509286    	0           	                	;
 No23109         	1.420638    	0           	                	;
 No23111         	1.555037    	0           	                	;
 No23113         	2.046360    	0           	                	;
 No23115         	2.121079    	0           	                	;
 No23117         	2.033978    	0           	                	;
 No23133         	0.872264    	0           	                	;
 No23136         	0.742189    	0           	                	;
 No23137         	0.771208    	0           	                	;
 No23139         	0.635658    	0           	                	;
 No23141         	0.630238    	0           	                	;
 No23144         	0.571320    	0           	                	;
 No23145         	1.829207    	0           	                	;
 No23147         	1.898530    	0           	                	;
 No23151         	1.506581    	0           	                	;
 No23155         	0.884361    	0           	                	;
 No23157         	0.822346    	0           	                	;
 No23159         	0.686389    	0           	                	;
 No23161         	0.721768    	0           	                	;
 No23163         	0.622421    	0           	                	;
 No23165         	0.505628    	0           	                	;
 No23167         	0.498424    	0           	                	;
 No23169         	1.470331    	0           	                	;
 No23171         	1.476022    	0           	                	;
 No23173         	0.968699    	0           	                	;