[TITLE]


[JUNCTIONS]
;ID              	Elev        	Demand      	Pattern         
 CAMVHDWYBC      	77.94       	60          	0101            	;
 CAMXTLUPLQ      	77.82       	0           	                	;
 CAN4WI14EF      	77.82       	60          	0101            	;
 CAJU04DEAE      	82.92       	30          	0101            	;
 CAK7V3U75Q      	82.84       	0           	                	;
 CAKIJ91SJ7      	82.8        	0           	                	;
 CAHY3SP1SX      	91.86       	0           	                	;
 CAH3PK8EBQ      	77.26       	0           	                	;
 CAHEPQJDCC      	91.0832     	0           	                	;
 CAHMGUBXB9      	89.4416     	0           	                	;
 CAHSYX0MQL      	92.14       	0           	                	;
 CAHVB5XDYX      	92.06       	0           	                	;
 CAHW7YK6TE      	92.02       	0           	                	;
 CAT9D0UI7M      	77.76       	0           	                	;
 CATA11682A      	77.78       	0           	                	;
 CATGQWN42E      	73.5096     	0           	                	;
 CATHG4T3C2      	73.5648     	0           	                	;
 CATT7GTXPW      	73.4448     	0           	                	;
 CAU3UEQ84P      	73.432      	0           	                	;
 CAWTQQVEVB      	76.48       	0           	                	;
 CAX35UYJJV      	76.42599    	0           	                	;
 CAXRMST1XU      	73.46       	0           	                	;
 CAY2XR11B8      	73.34       	3           	0101            	;
 CAY8MF6FBW      	76.302      	0           	                	;
 CB0QS62499      	74.88       	60          	0101            	;
 CADXK24N13      	82.32       	0           	                	;
 CAE6C5W3QA      	82.32       	0           	                	;
 CAF33KUVGM      	77.5        	83          	0101            	;
 CAFPFW92WV      	77.5        	0           	                	;
 CAG1S2RCNU      	77.58       	0           	                	;
 CAGS1F0TLF      	91.2176     	0           	                	;
 CAH1VXWUNL      	91.1504     	0           	                	;
 CAHWX6Q63G      	91.98       	0           	                	;
 CAPIT7B4E5      	77.88       	0           	                	;
 CAPPYAASDR      	77.88       	0           	                	;
 CAPVSD54EV      	77.88       	0           	                	;
 CAPYDEE98V      	75.28       	0           	0101            	;
 CAQ3U9RK1F      	77.88       	0           	                	;
 CAQ8FISRY6      	77.76       	0           	                	;
 CAQIGNNNJR      	77.72       	0           	                	;
 CARAD29R5S      	78          	0           	                	;
 CARJR6TXRB      	77.96       	0           	                	;
 CARXM6AQMI      	77.92       	0           	                	;
 CBFA18E7W7      	70          	4           	0101            	;
 CBFAN8PTXP      	70          	0           	                	;
 C9Y7EGTTLF      	77.16       	0           	                	;
 CA10DR3GC9      	76.96       	0           	                	;
 CA1GW02UYE      	95.1        	30          	0101            	;
 CA1PC3NXWK      	95.04       	0           	                	;
 CA2V5N2795      	94.72       	0           	                	;
 CA46TARLYL      	95.04       	0           	                	;
 CA4CYDRAW4      	95.04       	0           	                	;
 CA5MC0UVXD      	87.92       	0           	                	;
 CANS01JKLF      	75.38       	1           	0101            	;
 CAP5J0V1HB      	75.34       	0           	                	;
 CAPAYVPEHU      	77.86       	0           	                	;
 CBE00L0FGR      	70.0448     	1           	0101            	;
 CBEA1QV88R      	70          	0           	                	;
 CBF49CE69F      	70          	0           	                	;
 CBF8Q7RT8I      	70          	0           	                	;
 CALXFXC0C3      	79.81599    	0           	                	;
 CAM86331DP      	75.52       	3           	0101            	;
 CAMPX4EQJ0      	77.8        	0           	                	;
 C9U9IYAIF0      	94.1        	0           	                	;
 C9UWJA141Y      	81.45       	0           	                	;
 C9VE2I219T      	81.5424     	0           	                	;
 CA72VPGLWJ      	87.52       	54          	0101            	;
 CA7MM038UT      	84.68       	0           	                	;
 C8DQK37GHA      	80.3784     	0           	                	;
 C8E33U7KFT      	80.4368     	0           	                	;
 C8F0JHAY64      	80.5616     	0           	                	;
 C8W8QDU3CD      	80          	0           	                	;
 C8WBYFEKP9      	80          	0           	                	;
 CB0WL8VFB4      	74.84       	0           	                	;
 CB2DFY4J7J      	74.72       	0           	                	;
 CB2MU3NQWW      	74.62       	0           	                	;
 CB7UJLLUNS      	72.1        	0           	                	;
 CBC7CBVXKK      	71.3        	0           	                	;
 CBCBNSL27P      	71.3        	0           	                	;
 CAIXHGQQNM      	89.3208     	57          	0101            	;
 CAJ2PIT6KH      	76.98       	0           	                	;
 CA7T52RTDL      	77.26       	0           	                	;
 CA7VQ4124D      	84.4        	0           	                	;
 C9R8XHF0QW      	79.39999    	0           	                	;
 C9SR389LQ7      	94.74       	37          	0101            	;
 C94GPWFYTE      	80.3116     	0           	                	;
 C94K9Y6VB0      	80.1176     	0           	                	;
 C954Q85WMC      	80.108      	0           	                	;
 C9DT8FUUX8      	80          	0           	                	;
 C9E02IP6XR      	80.02       	0           	                	;
 C9EQAVY4YU      	90.48       	0           	                	;
 CAKJ52I8D0      	82.72       	0           	                	;
 CAKK69TJKD      	82.64       	0           	                	;
 CALBCF9VEK      	79.8704     	0           	                	;
 CALN2SRSSR      	79.844      	0           	                	;
 CAHYT0U130      	91.82       	0           	                	;
 CBDU5IM5V4      	70.048      	4           	0101            	;
 CBDWGRJVVL      	70.0464     	0           	                	;
 C9T5CEQ1U7      	94.52       	0           	                	;
 CADQRXTA63      	82.32       	0           	                	;
 CA81967Y3E      	84.56       	0           	                	;
 CA81W6IN8H      	84.4        	0           	                	;
 C9PVQ1R1B5      	79.42       	8           	0101            	;
 C9PYVVH9RD      	79.38       	0           	                	;
 C9QE53EE12      	84.0812     	0           	                	;
 C9QEPVVVHU      	82.9468     	0           	                	;
 C9LML9DG9V      	93.95       	0           	                	;
 C9MCJL1GV1      	93.658      	0           	                	;
 C9NRSAHD2T      	82.3188     	0           	0101            	;
 CA87E97M2F      	84.56       	0           	                	;
 CA8AYAXHQ3      	84.44       	81          	0101            	;
 CA7RI202PL      	77.26       	0           	                	;
 C9QMJ7HKE4      	82.9728     	0           	                	;
 C9QPT8LCD6      	79.24001    	0           	                	;
 C9QS39PSWU      	79.26       	0           	                	;
 C9QTDABWF3      	83.0568     	103         	0101            	;
 C9QVBBABA5      	79.28       	0           	                	;
 C9QYVD16KC      	79.32       	0           	                	;
 C9R3B13HHM      	79.34       	0           	                	;
 C9R6NGBJ7V      	79.38       	0           	                	;
 CA8BXBF5RV      	77.2        	0           	                	;
 CA8EUCTPTA      	84.52       	0           	                	;
 C9W4YV634F      	81.6652     	0           	                	;
 C9WA5XMY4F      	94.84       	0           	                	;
 C9X8IEE4HN      	94.42       	0           	                	;
 C9XV3BBI87      	77.2        	0           	                	;
 CA68EAL687      	94.84       	0           	                	;
 CA6U4KP70F      	87.6        	0           	                	;
 CAI412VSYL      	89.3904     	0           	                	;
 C9EVNJYJ69      	90.86       	0           	                	;
 C9EXR0K73H      	90.98       	0           	                	;
 C9H6T3JU4T      	89.54       	0           	                	;
 CA81W6J9C0      	77.22       	0           	                	;
 C9VLY1H0CL      	81.5816     	0           	                	;
 C9W0RT3RFP      	94.94       	58          	0101            	;
 CA5US4GYVU      	87.84       	0           	                	;
 C91KMHRJM3      	80          	0           	                	;
 C92ICY6VWN      	80.3472     	1           	0101            	;
 C93NUIDTPD      	80.1332     	0           	                	;
 C947YS7GPL      	80.384      	0           	                	;
 C94BQFF6BM      	80.272      	0           	                	;
 CAINFCCEF3      	80.68       	0           	                	;
 C9NVNCDIKS      	83.7004     	0           	                	;
 C9P4FG614L      	82.4976     	0           	                	;
 C9P7NHQGRR      	83.79       	0           	                	;
 C9PC9RRQ0T      	82.54       	0           	                	;
 C9PD6KERSF      	79.4        	0           	                	;
 C9PKCVPRYD      	79.38       	0           	                	;
 C9L8D2G0AT      	94.0984     	17          	0101            	;
 C9F1N20DHX      	90.34       	0           	                	;
 C9FCUSU5IA      	90.24       	0           	                	;
 C9G2XJ5LAU      	92.18       	108         	0101            	;
 C9GI5RJ537      	92.1        	0           	                	;
 C9GVPQUK1X      	91.96       	0           	                	;
 C9H5U33NWC      	91.88       	0           	                	;
 CBD7S88RM5      	70.92       	0           	                	;
 CBCMNXY0VF      	71.18       	0           	                	;
 CBCU6242J0      	71          	0           	                	;
 CBCGC9GIVH      	71.08       	5           	0101            	;
 CAIE27S80K      	80.64       	0           	                	;
 CAIG08PP1M      	90.9152     	19          	0101            	;
 CAIVVFYH73      	80.64       	0           	                	;
 hydrx3          	88.72       	0           	                	;
 flush1          	90.32       	0           	                	;
 flush2          	89.02       	0           	                	;
 flush3          	86.18       	0           	                	;
 flush4          	76.12       	0           	                	;

[RESERVOIRS]
;ID              	Head        	Pattern         
 1               	1           	res1            	;

[TANKS]
;ID              	Elevation   	InitLevel   	MinLevel    	MaxLevel    	Diameter    	MinVol      	VolCurve

[PIPES]
;ID              	Node1           	Node2           	Length      	Diameter    	Roughness   	MinorLoss   	Status
 L07KECGB        	CALXFXC0C3      	CALN2SRSSR      	1.59        	94.78       	70.09       	0.00        	Open  	;
 L07KECGC        	CALBCF9VEK      	CAIVVFYH73      	15.50       	94.78       	70.09       	0.00        	Open  	;
 L07KECIA        	CAIVVFYH73      	CAE6C5W3QA      	30.21       	94.78       	70.09       	0.00        	Open  	;
 L07KECKA        	CAE6C5W3QA      	CA8AYAXHQ3      	37.48       	94.78       	70.09       	0.00        	Open  	;
 L07KECMA        	CA8AYAXHQ3      	CA81967Y3E      	1.83        	94.78       	70.09       	0.00        	Open  	;
 L07KECGA        	CALN2SRSSR      	CALBCF9VEK      	1.99        	94.78       	70.09       	0.00        	Open  	;
 L07KED1B        	CARAD29R5S      	CAQ3U9RK1F      	13.86       	195.96      	149.96      	0.00        	Open  	;
 L07LC28B        	C94GPWFYTE      	C947YS7GPL      	5.39        	99.65       	70.00       	0.00        	Open  	;
 L07LC28C        	C94BQFF6BM      	C94GPWFYTE      	2.01        	99.65       	70.00       	0.00        	Open  	;
 L07LC2AA        	C93NUIDTPD      	C94K9Y6VB0      	5.05        	99.65       	70.00       	0.00        	Open  	;
 L07KED2A        	CARAD29R5S      	CARJR6TXRB      	1.45        	94.37       	50.83       	0.00        	Open  	;
 L07KED2B        	CARJR6TXRB      	CARXM6AQMI      	2.00        	94.37       	50.83       	0.00        	Open  	;
 L07KED2C        	CARXM6AQMI      	CAT9D0UI7M      	6.94        	94.37       	50.83       	0.00        	Open  	;
 L07KED3A        	CAT9D0UI7M      	CAWTQQVEVB      	40.31       	94.37       	50.83       	0.00        	Open  	;
 L07KED5A        	CAWTQQVEVB      	CB2DFY4J7J      	47.46       	94.37       	50.83       	0.00        	Open  	;
 L07KED1C        	CAQ3U9RK1F      	CAPVSD54EV      	2.00        	195.96      	149.96      	0.00        	Open  	;
 L07KEBJA        	CAFPFW92WV      	CAH3PK8EBQ      	9.17        	99.65       	70.00       	0.00        	Open  	;
 L07KEBKA        	CAH3PK8EBQ      	CAJ2PIT6KH      	14.01       	99.65       	70.00       	0.00        	Open  	;
 L07KEBNA        	CAG1S2RCNU      	C9UWJA141Y      	137.20      	195.59      	110.00      	0.00        	Open  	;
 L07KEC0A        	C9UWJA141Y      	C9QTDABWF3      	27.22       	195.59      	110.00      	0.00        	Open  	;
 L07KECEB        	CAKIJ91SJ7      	CAK7V3U75Q      	1.65        	58.11       	23.42       	0.00        	Open  	;
 L07KE99A        	CAU3UEQ84P      	CATHG4T3C2      	3.68        	99.62       	100.00      	0.00        	Open  	;
 L07KE9CA        	CBEA1QV88R      	CBFAN8PTXP      	5.51        	99.65       	70.00       	0.00        	Open  	;
 L07KE9DA        	CBEA1QV88R      	CBD7S88RM5      	36.25       	99.65       	70.00       	0.00        	Open  	;
 L07KE9JA        	CBCGC9GIVH      	CB7UJLLUNS      	25.43       	96.63       	100.00      	0.00        	Open  	;
 L07KE9JB        	CBD7S88RM5      	CBCU6242J0      	1.96        	96.63       	100.00      	0.00        	Open  	;
 L07KE9JC        	CBCU6242J0      	CBCGC9GIVH      	1.99        	96.63       	100.00      	0.00        	Open  	;
 L07KECEC        	CAJU04DEAE      	CA72VPGLWJ      	82.57       	58.11       	23.42       	0.00        	Open  	;
 L07KECFA        	CAKK69TJKD      	CALXFXC0C3      	67.36       	152.97      	150.00      	0.00        	Open  	;
 L07KECFB        	CAKJ52I8D0      	CAKK69TJKD      	2.00        	152.97      	150.00      	0.00        	Open  	;
 L07KECFC        	CAKIJ91SJ7      	CAKJ52I8D0      	1.21        	152.97      	150.00      	0.00        	Open  	;
 L07KEBGB        	CAQIGNNNJR      	CAQ8FISRY6      	1.98        	195.59      	110.00      	0.00        	Open  	;
 L07KEBIA        	CAG1S2RCNU      	CAFPFW92WV      	8.49        	99.65       	70.00       	0.00        	Open  	;
 L07KE9KA        	CBD7S88RM5      	CBCMNXY0VF      	7.93        	99.65       	70.00       	0.00        	Open  	;
 L07KE9LA        	CBC7CBVXKK      	CBCBNSL27P      	2.01        	148.50      	70.00       	0.00        	Open  	;
 L07KE9LB        	CBCMNXY0VF      	CBC7CBVXKK      	3.20        	148.50      	70.00       	0.00        	Open  	;
 L07KEBGA        	CAQ8FISRY6      	CAPPYAASDR      	3.46        	195.59      	110.00      	0.00        	Open  	;
 L07KEC2A        	C9QTDABWF3      	C9NVNCDIKS      	12.74       	148.50      	70.00       	0.00        	Open  	;
 L07KEC4A        	C9NVNCDIKS      	C9EQAVY4YU      	112.12      	139.47      	100.00      	0.00        	Open  	;
 L07KEC5A        	C9EQAVY4YU      	C9EVNJYJ69      	7.07        	139.47      	100.00      	0.00        	Open  	;
 L07KEC5B        	C9EXR0K73H      	C9G2XJ5LAU      	24.64       	139.47      	100.00      	0.00        	Open  	;
 L07KEC5C        	C9EVNJYJ69      	C9EXR0K73H      	2.01        	139.47      	100.00      	0.00        	Open  	;
 L07KECEA        	CAK7V3U75Q      	CAJU04DEAE      	1.99        	58.11       	23.42       	0.00        	Open  	;
 L07LBPMA        	C9SR389LQ7      	C9T5CEQ1U7      	2.38        	99.65       	70.00       	0.00        	Open  	;
 L07LB06A        	C9VE2I219T      	C9VLY1H0CL      	1.99        	74.25       	70.00       	0.00        	Open  	;
 L07LB06B        	C9VLY1H0CL      	C9W4YV634F      	4.28        	74.25       	70.00       	0.00        	Open  	;
 L07KE8IC        	C9QS39PSWU      	C9QVBBABA5      	1.85        	99.65       	70.00       	0.00        	Open  	;
 L07KE8KA        	C9QPT8LCD6      	CA7RI202PL      	88.59       	78.99       	80.00       	0.00        	Open  	;
 L07KE8NA        	CA7T52RTDL      	CA7RI202PL      	0.97        	78.99       	80.00       	0.00        	Open  	;
 L07KE97A        	C9XV3BBI87      	C9Y7EGTTLF      	2.01        	139.47      	100.00      	0.00        	Open  	;
 L07KE97B        	C9Y7EGTTLF      	CA10DR3GC9      	10.80       	139.47      	100.00      	0.00        	Open  	;
 L07KE8IB        	C9QPT8LCD6      	C9QS39PSWU      	1.34        	99.65       	70.00       	0.00        	Open  	;
 L07KE8IA        	C9QVBBABA5      	C9QYVD16KC      	2.01        	99.65       	70.00       	0.00        	Open  	;
 L07LAP8A        	CA81967Y3E      	CA87E97M2F      	1.57        	74.25       	70.00       	0.00        	Open  	;
 L07LAP9A        	CA87E97M2F      	CA8EUCTPTA      	1.85        	74.25       	70.00       	0.00        	Open  	;
 L07LAPAA        	CAE6C5W3QA      	CADXK24N13      	1.89        	74.25       	70.00       	0.00        	Open  	;
 L07KE8CA        	C9PKCVPRYD      	C9PD6KERSF      	1.25        	99.65       	70.00       	0.00        	Open  	;
 L07KE8DA        	C9PD6KERSF      	C9DT8FUUX8      	62.97       	99.65       	70.00       	0.00        	Open  	;
 L07KE8EA        	C9DT8FUUX8      	C947YS7GPL      	57.21       	99.65       	70.00       	0.00        	Open  	;
 L07KE8HA        	C9PYVVH9RD      	C9QPT8LCD6      	7.79        	99.65       	70.00       	0.00        	Open  	;
 L07KE8HB        	C9PD6KERSF      	C9PVQ1R1B5      	3.65        	99.65       	70.00       	0.00        	Open  	;
 L07KE8HC        	C9PVQ1R1B5      	C9PYVVH9RD      	2.00        	99.65       	70.00       	0.00        	Open  	;
 L07KJN0B        	CAHVB5XDYX      	CAHW7YK6TE      	2.00        	195.59      	110.00      	0.00        	Open  	;
 L07KJN0C        	CAHW7YK6TE      	CAHWX6Q63G      	2.00        	195.59      	110.00      	0.00        	Open  	;
 L07KJN0D        	CAHYT0U130      	CAIG08PP1M      	39.18       	195.59      	110.00      	0.00        	Open  	;
 L07KJN0E        	CAHSYX0MQL      	CAHVB5XDYX      	4.57        	195.59      	110.00      	0.00        	Open  	;
 L07KJN0F        	CAHY3SP1SX      	CAHYT0U130      	2.00        	195.59      	110.00      	0.00        	Open  	;
 L07KJN2A        	CAIG08PP1M      	CAIXHGQQNM      	48.19       	195.59      	110.00      	0.00        	Open  	;
 L07KJN4A        	CAKIJ91SJ7      	hydrx3          	126.00      	152.97      	150.00      	0.00        	Open  	;
 L07KJN5A        	CA72VPGLWJ      	CA6U4KP70F      	1.50        	99.65       	70.00       	0.00        	Open  	;
 L07L0E5A        	CA81W6J9C0      	CA8BXBF5RV      	1.99        	78.99       	80.00       	0.00        	Open  	;
 L07L0E5B        	CA7RI202PL      	CA81W6J9C0      	1.50        	78.99       	80.00       	0.00        	Open  	;
 L07L0E5C        	CA8BXBF5RV      	CAM86331DP      	75.27       	78.99       	80.00       	0.00        	Open  	;
 L07LBPNA        	C9T5CEQ1U7      	C9U9IYAIF0      	6.83        	99.65       	70.00       	0.00        	Open  	;
 L07LBPGA        	CAIXHGQQNM      	CAI412VSYL      	4.41        	74.25       	70.00       	0.00        	Open  	;
 L07LBPCA        	CA72VPGLWJ      	CA5US4GYVU      	8.38        	74.25       	70.00       	0.00        	Open  	;
 L07LBPIA        	CA1GW02UYE      	CA1PC3NXWK      	1.35        	74.25       	70.00       	0.00        	Open  	;
 L07LBPJA        	CA1PC3NXWK      	CA2V5N2795      	7.05        	74.25       	70.00       	0.00        	Open  	;
 L07LBPKA        	C9W0RT3RFP      	C9WA5XMY4F      	1.68        	74.25       	70.00       	0.00        	Open  	;
 L07LBPLA        	C9WA5XMY4F      	C9X8IEE4HN      	5.68        	74.25       	70.00       	0.00        	Open  	;
 L07L0ELA        	CAFPFW92WV      	CAF33KUVGM      	5.26        	99.65       	70.00       	0.00        	Open  	;
 L07L0ENA        	CANS01JKLF      	CAP5J0V1HB      	2.00        	98.94       	130.00      	0.00        	Open  	;
 L07L0ENB        	CAM86331DP      	CANS01JKLF      	9.09        	98.94       	130.00      	0.00        	Open  	;
 L07L0ENC        	CAP5J0V1HB      	CAPYDEE98V      	4.40        	98.94       	130.00      	0.00        	Open  	;
 L07L0EPA        	CAXRMST1XU      	CAY2XR11B8      	2.00        	98.94       	130.00      	0.00        	Open  	;
 L07LBPPA        	C9L8D2G0AT      	C9LML9DG9V      	2.51        	74.25       	70.00       	0.00        	Open  	;
 L07LC00A        	C9LML9DG9V      	C9MCJL1GV1      	4.23        	74.25       	70.00       	0.00        	Open  	;
 L07LC01A        	C9G2XJ5LAU      	C9GI5RJ537      	2.43        	74.25       	70.00       	0.00        	Open  	;
 L07LC02A        	C9GI5RJ537      	C9GVPQUK1X      	2.00        	74.25       	70.00       	0.00        	Open  	;
 L07LC02B        	C9GVPQUK1X      	C9H5U33NWC      	1.46        	74.25       	70.00       	0.00        	Open  	;
 L07LC27A        	C91KMHRJM3      	C93NUIDTPD      	28.51       	99.65       	70.00       	0.00        	Open  	;
 L07LC28A        	C93NUIDTPD      	C94BQFF6BM      	8.77        	99.65       	70.00       	0.00        	Open  	;
 L07L32MB        	CAMPX4EQJ0      	CAG1S2RCNU      	57.55       	195.59      	110.00      	0.00        	Open  	;
 L07L32MC        	CAN4WI14EF      	CAMXTLUPLQ      	1.52        	195.59      	110.00      	0.00        	Open  	;
 L07L32NA        	CAN4WI14EF      	CAMVHDWYBC      	6.03        	99.62       	100.00      	0.00        	Open  	;
 L07LAP2A        	C9NVNCDIKS      	C9P7NHQGRR      	2.66        	74.25       	70.00       	0.00        	Open  	;
 L07LAP3A        	C9P7NHQGRR      	C9QE53EE12      	10.23       	74.25       	70.00       	0.00        	Open  	;
 L07LAP4A        	C9QTDABWF3      	C9QMJ7HKE4      	1.46        	139.47      	100.00      	0.00        	Open  	;
 L07LAP4B        	C9PC9RRQ0T      	C9P4FG614L      	2.01        	139.47      	100.00      	0.00        	Open  	;
 L07LAP4C        	C9QMJ7HKE4      	C9QEPVVVHU      	2.00        	139.47      	100.00      	0.00        	Open  	;
 L07LAP4D        	C9QEPVVVHU      	C9PC9RRQ0T      	9.34        	139.47      	100.00      	0.00        	Open  	;
 L07LAP5A        	C9P4FG614L      	C9NRSAHD2T      	2.96        	139.47      	100.00      	0.00        	Open  	;
 L07LAP6A        	CA8AYAXHQ3      	CA81W6IN8H      	2.28        	74.25       	70.00       	0.00        	Open  	;
 L07LAP7A        	CA81W6IN8H      	CA7VQ4124D      	1.44        	74.25       	70.00       	0.00        	Open  	;
 L07KJMEC        	CA46TARLYL      	CA1GW02UYE      	29.49       	148.50      	70.00       	0.00        	Open  	;
 L07KJMGA        	CA1GW02UYE      	C9W0RT3RFP      	48.91       	148.50      	70.00       	0.00        	Open  	;
 L07KJMIA        	C9W0RT3RFP      	C9SR389LQ7      	35.71       	148.50      	70.00       	0.00        	Open  	;
 L07KJMKA        	C9SR389LQ7      	C9L8D2G0AT      	71.14       	195.59      	110.00      	0.00        	Open  	;
 L07KJMMA        	C9L8D2G0AT      	C9G2XJ5LAU      	61.30       	148.50      	70.00       	0.00        	Open  	;
 L07KJN0A        	CAHWX6Q63G      	CAHY3SP1SX      	3.40        	195.59      	110.00      	0.00        	Open  	;
 L07KJMEB        	CA4CYDRAW4      	CA46TARLYL      	2.01        	148.50      	70.00       	0.00        	Open  	;
 L07KEEMA        	C8F0JHAY64      	C92ICY6VWN      	128.48      	78.99       	80.00       	0.00        	Open  	;
 L07LBPFA        	CAH1VXWUNL      	CAGS1F0TLF      	1.37        	74.25       	70.00       	0.00        	Open  	;
 L07KEF0A        	C8WBYFEKP9      	C91KMHRJM3      	66.57       	78.99       	80.00       	0.00        	Open  	;
 L07KEF0B        	C8W8QDU3CD      	C8WBYFEKP9      	1.98        	78.99       	80.00       	0.00        	Open  	;
 L07KEF5A        	C8F0JHAY64      	C8E33U7KFT      	5.50        	99.62       	100.00      	0.00        	Open  	;
 L07KEF5B        	C8E33U7KFT      	C8DQK37GHA      	2.01        	99.62       	100.00      	0.00        	Open  	;
 L07KJMEA        	CA68EAL687      	CA4CYDRAW4      	16.98       	148.50      	70.00       	0.00        	Open  	;
 L07LBPDA        	CA5US4GYVU      	CA5MC0UVXD      	1.40        	74.25       	70.00       	0.00        	Open  	;
 L07LBPEA        	CAIG08PP1M      	CAHEPQJDCC      	5.46        	74.25       	70.00       	0.00        	Open  	;
 L07LCJKA        	C9DT8FUUX8      	C9E02IP6XR      	1.58        	74.25       	70.00       	0.00        	Open  	;
 L07LC2BA        	C94K9Y6VB0      	C954Q85WMC      	3.05        	99.65       	70.00       	0.00        	Open  	;
 L07LC47A        	C9EQAVY4YU      	C9F1N20DHX      	1.86        	74.25       	70.00       	0.00        	Open  	;
 L07LC48A        	C9F1N20DHX      	C9FCUSU5IA      	2.00        	74.25       	70.00       	0.00        	Open  	;
 L07LC48B        	C9FCUSU5IA      	C9H6T3JU4T      	11.04       	74.25       	70.00       	0.00        	Open  	;
 L07LCJCA        	C9R3B13HHM      	C9R6NGBJ7V      	2.18        	99.65       	70.00       	0.00        	Open  	;
 L07LCJCB        	C9QYVD16KC      	C9R3B13HHM      	1.99        	99.65       	70.00       	0.00        	Open  	;
 L07LCJCC        	C9R6NGBJ7V      	C9R8XHF0QW      	1.55        	99.65       	70.00       	0.00        	Open  	;
 L07KED8A        	CAT9D0UI7M      	CATA11682A      	0.71        	99.65       	70.00       	0.00        	Open  	;
 L07KEENA        	C92ICY6VWN      	C947YS7GPL      	10.11       	91.65       	100.00      	0.00        	Open  	;
 L07KE98A        	CA10DR3GC9      	CATGQWN42E      	164.82      	99.88       	120.00      	0.00        	Open  	;
 L07KE98B        	CATGQWN42E      	CATT7GTXPW      	2.00        	99.88       	120.00      	0.00        	Open  	;
 L07L0EPB        	CAY2XR11B8      	CBDU5IM5V4      	94.29       	98.94       	130.00      	0.00        	Open  	;
 L07KECPA        	CA81967Y3E      	CA7MM038UT      	2.34        	94.78       	70.09       	0.00        	Open  	;
 L07KED0A        	CALXFXC0C3      	CARAD29R5S      	51.97       	152.97      	150.00      	0.00        	Open  	;
 L07KED1A        	CAPVSD54EV      	CAPPYAASDR      	1.42        	195.96      	149.96      	0.00        	Open  	;
 L07L0EBA        	CBFA18E7W7      	CBEA1QV88R      	33.88       	78.99       	80.00       	0.00        	Open  	;
 L07L0EGA        	CBE00L0FGR      	CBDWGRJVVL      	2.01        	99.62       	100.00      	0.00        	Open  	;
 L07L0EGB        	CAU3UEQ84P      	CBE00L0FGR      	152.40      	99.62       	100.00      	0.00        	Open  	;
 L07L0EGC        	CBDWGRJVVL      	CBDU5IM5V4      	1.92        	99.62       	100.00      	0.00        	Open  	;
 L07L0EKA        	CBF49CE69F      	CBF8Q7RT8I      	2.01        	98.94       	130.00      	0.00        	Open  	;
 L07L0EKB        	CBDU5IM5V4      	CBF49CE69F      	8.11        	98.94       	130.00      	0.00        	Open  	;
 L07L0EKC        	CBF8Q7RT8I      	CBFA18E7W7      	1.62        	98.94       	130.00      	0.00        	Open  	;
 L07L32MA        	CAMXTLUPLQ      	CAMPX4EQJ0      	2.00        	195.59      	110.00      	0.00        	Open  	;
 L07KE98C        	CATT7GTXPW      	CAU3UEQ84P      	1.60        	99.88       	120.00      	0.00        	Open  	;
 L07KED6A        	CB2DFY4J7J      	CB2MU3NQWW      	2.02        	99.65       	70.00       	0.00        	Open  	;
 L07L0EPC        	CAPYDEE98V      	CAXRMST1XU      	54.93       	98.94       	130.00      	0.00        	Open  	;
 L07L0F0A        	CAF33KUVGM      	CAPYDEE98V      	96.46       	98.94       	130.00      	0.00        	Open  	;
 L07L32LA        	CAPIT7B4E5      	CAPAYVPEHU      	1.99        	195.96      	149.96      	0.00        	Open  	;
 L07L32LB        	CAPPYAASDR      	CAPIT7B4E5      	1.42        	195.96      	149.96      	0.00        	Open  	;
 L07L32LC        	CAPAYVPEHU      	CAN4WI14EF      	10.21       	195.96      	149.96      	0.00        	Open  	;
 L07LBPFB        	CAHEPQJDCC      	CAH1VXWUNL      	1.99        	74.25       	70.00       	0.00        	Open  	;
 L07LBPHA        	CAI412VSYL      	CAHMGUBXB9      	2.41        	74.25       	70.00       	0.00        	Open  	;
 L07LAPIA        	CB0WL8VFB4      	CB0QS62499      	1.24        	99.65       	70.00       	0.00        	Open  	;
 L07LB05A        	C9UWJA141Y      	C9VE2I219T      	4.29        	74.25       	70.00       	0.00        	Open  	;
 L07LAPBA        	CADXK24N13      	CADQRXTA63      	1.83        	74.25       	70.00       	0.00        	Open  	;
 L07LAPDA        	CAIE27S80K      	CAINFCCEF3      	2.43        	74.25       	70.00       	0.00        	Open  	;
 L07LAPEA        	CAINFCCEF3      	CAIVVFYH73      	1.81        	74.25       	70.00       	0.00        	Open  	;
 L07LAPFA        	CAWTQQVEVB      	CAX35UYJJV      	1.41        	99.65       	70.00       	0.00        	Open  	;
 L07LAPGA        	CAX35UYJJV      	CAY8MF6FBW      	7.34        	99.65       	70.00       	0.00        	Open  	;
 L07LAPHA        	CB2DFY4J7J      	CB0WL8VFB4      	10.71       	99.65       	70.00       	0.00        	Open  	;
 L07KJN4B        	hydrx3          	CAIXHGQQNM      	12.50       	195.59      	110.00      	0.00        	Open  	;
 flush1b         	hydrx3          	flush1          	1.15        	44.02       	55.18       	27.68       	CLOSED	;
 flush1c         	hydrx3          	flush1          	1.15        	49.32       	55.18       	27.68       	CLOSED	;
 flush1a         	hydrx3          	flush1          	1.15        	32.11       	55.18       	27.68       	CLOSED	;